<?xml version="1.0" encoding="UTF-8"?>
<routes xmlns:xsi="http://www.w3.org/2001/XMLSchema-instance" xsi:noNamespaceSchemaLocation="http://sumo.dlr.de/xsd/routes_file.xsd">
   <vehicle id="human_0" type="default" depart="0.0" departPos="base" departSpeed="0.0" arrivalPos="max" arrivalSpeed="current">
      <route edges="A1A AC CF FI IL LL1"/>
   </vehicle>
   <vehicle id="human_1" type="default" depart="0.0" departPos="base" departSpeed="0.0" arrivalPos="max" arrivalSpeed="current">
      <route edges="A1A AC CF FI IL LL1"/>
   </vehicle>
   <vehicle id="human_2" type="default" depart="0.0" departPos="base" departSpeed="0.0" arrivalPos="max" arrivalSpeed="current">
      <route edges="A1A AC CF FI IL LL1"/>
   </vehicle>
   <vehicle id="human_3" type="default" depart="0.0" departPos="base" departSpeed="0.0" arrivalPos="max" arrivalSpeed="current">
      <route edges="A1A AC CF FI IL LL1"/>
   </vehicle>
   <vehicle id="human_4" type="default" depart="0.0" departPos="base" departSpeed="0.0" arrivalPos="max" arrivalSpeed="current">
      <route edges="A1A AC CF FI IL LL1"/>
   </vehicle>
   <vehicle id="human_5" type="default" depart="0.0" departPos="base" departSpeed="0.0" arrivalPos="max" arrivalSpeed="current">
      <route edges="A1A AC CF FI IL LL1"/>
   </vehicle>
   <vehicle id="human_6" type="default" depart="0.0" departPos="base" departSpeed="0.0" arrivalPos="max" arrivalSpeed="current">
      <route edges="A1A AC CF FI IL LL1"/>
   </vehicle>
   <vehicle id="human_7" type="default" depart="0.0" departPos="base" departSpeed="0.0" arrivalPos="max" arrivalSpeed="current">
      <route edges="A1A AC CF FI IL LL1"/>
   </vehicle>
   <vehicle id="human_8" type="default" depart="0.0" departPos="base" departSpeed="0.0" arrivalPos="max" arrivalSpeed="current">
      <route edges="A1A AC CF FI IL LL1"/>
   </vehicle>
   <vehicle id="human_9" type="default" depart="0.0" departPos="base" departSpeed="0.0" arrivalPos="max" arrivalSpeed="current">
      <route edges="A1A AC CF FI IL LL1"/>
   </vehicle>
   <vehicle id="human_10" type="default" depart="0.0" departPos="base" departSpeed="0.0" arrivalPos="max" arrivalSpeed="current">
      <route edges="A1A AC CF FI IL LL1"/>
   </vehicle>
   <vehicle id="human_11" type="default" depart="0.0" departPos="base" departSpeed="0.0" arrivalPos="max" arrivalSpeed="current">
      <route edges="A1A AC CF FI IL LL1"/>
   </vehicle>
   <vehicle id="human_12" type="default" depart="0.0" departPos="base" departSpeed="0.0" arrivalPos="max" arrivalSpeed="current">
      <route edges="A1A AC CF FI IL LL1"/>
   </vehicle>
   <vehicle id="human_13" type="default" depart="0.0" departPos="base" departSpeed="0.0" arrivalPos="max" arrivalSpeed="current">
      <route edges="A1A AC CF FI IL LL1"/>
   </vehicle>
   <vehicle id="human_14" type="default" depart="0.0" departPos="base" departSpeed="0.0" arrivalPos="max" arrivalSpeed="current">
      <route edges="A1A AC CF FI IL LL1"/>
   </vehicle>
   <vehicle id="human_15" type="default" depart="0.0" departPos="base" departSpeed="0.0" arrivalPos="max" arrivalSpeed="current">
      <route edges="A1A AC CF FI IL LL1"/>
   </vehicle>
   <vehicle id="human_16" type="default" depart="0.0" departPos="base" departSpeed="0.0" arrivalPos="max" arrivalSpeed="current">
      <route edges="A1A AC CF FI IL LL1"/>
   </vehicle>
   <vehicle id="human_17" type="default" depart="0.0" departPos="base" departSpeed="0.0" arrivalPos="max" arrivalSpeed="current">
      <route edges="A1A AC CF FI IL LL1"/>
   </vehicle>
   <vehicle id="human_18" type="default" depart="0.0" departPos="base" departSpeed="0.0" arrivalPos="max" arrivalSpeed="current">
      <route edges="A1A AC CF FI IL LL1"/>
   </vehicle>
   <vehicle id="human_19" type="default" depart="0.0" departPos="base" departSpeed="0.0" arrivalPos="max" arrivalSpeed="current">
      <route edges="A1A AC CF FI IL LL1"/>
   </vehicle>
   <vehicle id="human_20" type="default" depart="0.0" departPos="base" departSpeed="0.0" arrivalPos="max" arrivalSpeed="current">
      <route edges="A1A AC CF FI IL LL1"/>
   </vehicle>
   <vehicle id="human_21" type="default" depart="0.0" departPos="base" departSpeed="0.0" arrivalPos="max" arrivalSpeed="current">
      <route edges="A1A AC CF FI IL LL1"/>
   </vehicle>
   <vehicle id="human_22" type="default" depart="0.0" departPos="base" departSpeed="0.0" arrivalPos="max" arrivalSpeed="current">
      <route edges="A1A AC CF FI IL LL1"/>
   </vehicle>
   <vehicle id="human_23" type="default" depart="0.0" departPos="base" departSpeed="0.0" arrivalPos="max" arrivalSpeed="current">
      <route edges="A1A AC CF FI IL LL1"/>
   </vehicle>
   <vehicle id="human_24" type="default" depart="0.0" departPos="base" departSpeed="0.0" arrivalPos="max" arrivalSpeed="current">
      <route edges="A1A AC CF FI IL LL1"/>
   </vehicle>
   <vehicle id="human_25" type="default" depart="0.0" departPos="base" departSpeed="0.0" arrivalPos="max" arrivalSpeed="current">
      <route edges="A1A AC CF FI IL LL1"/>
   </vehicle>
   <vehicle id="human_26" type="default" depart="0.0" departPos="base" departSpeed="0.0" arrivalPos="max" arrivalSpeed="current">
      <route edges="A1A AC CF FI IL LL1"/>
   </vehicle>
   <vehicle id="human_27" type="default" depart="0.0" departPos="base" departSpeed="0.0" arrivalPos="max" arrivalSpeed="current">
      <route edges="A1A AC CF FI IL LL1"/>
   </vehicle>
   <vehicle id="human_28" type="default" depart="0.0" departPos="base" departSpeed="0.0" arrivalPos="max" arrivalSpeed="current">
      <route edges="A1A AC CF FI IL LL1"/>
   </vehicle>
   <vehicle id="human_29" type="default" depart="0.0" departPos="base" departSpeed="0.0" arrivalPos="max" arrivalSpeed="current">
      <route edges="A1A AC CF FI IL LL1"/>
   </vehicle>
   <vehicle id="human_30" type="default" depart="0.0" departPos="base" departSpeed="0.0" arrivalPos="max" arrivalSpeed="current">
      <route edges="A1A AC CF FI IL LL1"/>
   </vehicle>
   <vehicle id="human_31" type="default" depart="0.0" departPos="base" departSpeed="0.0" arrivalPos="max" arrivalSpeed="current">
      <route edges="A1A AC CF FI IL LL1"/>
   </vehicle>
   <vehicle id="human_32" type="default" depart="0.0" departPos="base" departSpeed="0.0" arrivalPos="max" arrivalSpeed="current">
      <route edges="A1A AC CF FI IL LL1"/>
   </vehicle>
   <vehicle id="human_33" type="default" depart="0.0" departPos="base" departSpeed="0.0" arrivalPos="max" arrivalSpeed="current">
      <route edges="A1A AC CF FI IL LL1"/>
   </vehicle>
   <vehicle id="human_34" type="default" depart="0.0" departPos="base" departSpeed="0.0" arrivalPos="max" arrivalSpeed="current">
      <route edges="A1A AC CF FI IL LL1"/>
   </vehicle>
   <vehicle id="human_35" type="default" depart="0.0" departPos="base" departSpeed="0.0" arrivalPos="max" arrivalSpeed="current">
      <route edges="A1A AC CF FI IL LL1"/>
   </vehicle>
   <vehicle id="human_36" type="default" depart="0.0" departPos="base" departSpeed="0.0" arrivalPos="max" arrivalSpeed="current">
      <route edges="A1A AC CF FI IL LL1"/>
   </vehicle>
   <vehicle id="human_37" type="default" depart="0.0" departPos="base" departSpeed="0.0" arrivalPos="max" arrivalSpeed="current">
      <route edges="A1A AC CF FI IL LL1"/>
   </vehicle>
   <vehicle id="human_38" type="default" depart="0.0" departPos="base" departSpeed="0.0" arrivalPos="max" arrivalSpeed="current">
      <route edges="A1A AC CF FI IL LL1"/>
   </vehicle>
   <vehicle id="human_39" type="default" depart="0.0" departPos="base" departSpeed="0.0" arrivalPos="max" arrivalSpeed="current">
      <route edges="A1A AC CF FI IL LL1"/>
   </vehicle>
   <vehicle id="human_40" type="default" depart="0.0" departPos="base" departSpeed="0.0" arrivalPos="max" arrivalSpeed="current">
      <route edges="A1A AC CF FI IL LL1"/>
   </vehicle>
   <vehicle id="human_41" type="default" depart="0.0" departPos="base" departSpeed="0.0" arrivalPos="max" arrivalSpeed="current">
      <route edges="A1A AC CF FI IL LL1"/>
   </vehicle>
   <vehicle id="human_42" type="default" depart="0.0" departPos="base" departSpeed="0.0" arrivalPos="max" arrivalSpeed="current">
      <route edges="A1A AC CF FI IL LL1"/>
   </vehicle>
   <vehicle id="human_43" type="default" depart="0.0" departPos="base" departSpeed="0.0" arrivalPos="max" arrivalSpeed="current">
      <route edges="A1A AC CF FI IL LL1"/>
   </vehicle>
   <vehicle id="human_44" type="default" depart="0.0" departPos="base" departSpeed="0.0" arrivalPos="max" arrivalSpeed="current">
      <route edges="A1A AC CF FI IL LL1"/>
   </vehicle>
   <vehicle id="human_45" type="default" depart="0.0" departPos="base" departSpeed="0.0" arrivalPos="max" arrivalSpeed="current">
      <route edges="A1A AC CF FI IL LL1"/>
   </vehicle>
   <vehicle id="human_46" type="default" depart="0.0" departPos="base" departSpeed="0.0" arrivalPos="max" arrivalSpeed="current">
      <route edges="A1A AC CF FI IL LL1"/>
   </vehicle>
   <vehicle id="human_47" type="default" depart="0.0" departPos="base" departSpeed="0.0" arrivalPos="max" arrivalSpeed="current">
      <route edges="A1A AC CF FI IL LL1"/>
   </vehicle>
   <vehicle id="human_48" type="default" depart="0.0" departPos="base" departSpeed="0.0" arrivalPos="max" arrivalSpeed="current">
      <route edges="A1A AC CF FI IL LL1"/>
   </vehicle>
   <vehicle id="human_49" type="default" depart="0.0" departPos="base" departSpeed="0.0" arrivalPos="max" arrivalSpeed="current">
      <route edges="A1A AC CF FI IL LL1"/>
   </vehicle>
   <vehicle id="human_50" type="default" depart="0.0" departPos="base" departSpeed="0.0" arrivalPos="max" arrivalSpeed="current">
      <route edges="A1A AC CF FI IL LL1"/>
   </vehicle>
   <vehicle id="human_51" type="default" depart="0.0" departPos="base" departSpeed="0.0" arrivalPos="max" arrivalSpeed="current">
      <route edges="A1A AC CF FI IL LL1"/>
   </vehicle>
   <vehicle id="human_52" type="default" depart="0.0" departPos="base" departSpeed="0.0" arrivalPos="max" arrivalSpeed="current">
      <route edges="A1A AC CF FI IL LL1"/>
   </vehicle>
   <vehicle id="human_53" type="default" depart="0.0" departPos="base" departSpeed="0.0" arrivalPos="max" arrivalSpeed="current">
      <route edges="A1A AC CF FI IL LL1"/>
   </vehicle>
   <vehicle id="human_54" type="default" depart="0.0" departPos="base" departSpeed="0.0" arrivalPos="max" arrivalSpeed="current">
      <route edges="A1A AC CF FI IL LL1"/>
   </vehicle>
   <vehicle id="human_55" type="default" depart="0.0" departPos="base" departSpeed="0.0" arrivalPos="max" arrivalSpeed="current">
      <route edges="A1A AC CF FI IL LL1"/>
   </vehicle>
   <vehicle id="human_56" type="default" depart="0.0" departPos="base" departSpeed="0.0" arrivalPos="max" arrivalSpeed="current">
      <route edges="A1A AC CF FI IL LL1"/>
   </vehicle>
   <vehicle id="human_57" type="default" depart="0.0" departPos="base" departSpeed="0.0" arrivalPos="max" arrivalSpeed="current">
      <route edges="A1A AC CF FI IL LL1"/>
   </vehicle>
   <vehicle id="human_58" type="default" depart="0.0" departPos="base" departSpeed="0.0" arrivalPos="max" arrivalSpeed="current">
      <route edges="A1A AC CF FI IL LL1"/>
   </vehicle>
   <vehicle id="human_59" type="default" depart="0.0" departPos="base" departSpeed="0.0" arrivalPos="max" arrivalSpeed="current">
      <route edges="A1A AC CF FI IL LL1"/>
   </vehicle>
   <vehicle id="human_60" type="default" depart="0.0" departPos="base" departSpeed="0.0" arrivalPos="max" arrivalSpeed="current">
      <route edges="A1A AC CF FI IL LL1"/>
   </vehicle>
   <vehicle id="human_61" type="default" depart="0.0" departPos="base" departSpeed="0.0" arrivalPos="max" arrivalSpeed="current">
      <route edges="A1A AC CF FI IL LL1"/>
   </vehicle>
   <vehicle id="human_62" type="default" depart="0.0" departPos="base" departSpeed="0.0" arrivalPos="max" arrivalSpeed="current">
      <route edges="A1A AC CF FI IL LL1"/>
   </vehicle>
   <vehicle id="human_63" type="default" depart="0.0" departPos="base" departSpeed="0.0" arrivalPos="max" arrivalSpeed="current">
      <route edges="A1A AC CF FI IL LL1"/>
   </vehicle>
   <vehicle id="human_64" type="default" depart="0.0" departPos="base" departSpeed="0.0" arrivalPos="max" arrivalSpeed="current">
      <route edges="A1A AC CF FI IL LL1"/>
   </vehicle>
   <vehicle id="human_65" type="default" depart="0.0" departPos="base" departSpeed="0.0" arrivalPos="max" arrivalSpeed="current">
      <route edges="A1A AC CF FI IL LL1"/>
   </vehicle>
   <vehicle id="human_66" type="default" depart="0.0" departPos="base" departSpeed="0.0" arrivalPos="max" arrivalSpeed="current">
      <route edges="A1A AC CF FI IL LL1"/>
   </vehicle>
   <vehicle id="human_67" type="default" depart="0.0" departPos="base" departSpeed="0.0" arrivalPos="max" arrivalSpeed="current">
      <route edges="A1A AC CF FI IL LL1"/>
   </vehicle>
   <vehicle id="human_68" type="default" depart="0.0" departPos="base" departSpeed="0.0" arrivalPos="max" arrivalSpeed="current">
      <route edges="A1A AC CF FI IL LL1"/>
   </vehicle>
   <vehicle id="human_69" type="default" depart="0.0" departPos="base" departSpeed="0.0" arrivalPos="max" arrivalSpeed="current">
      <route edges="A1A AC CF FI IL LL1"/>
   </vehicle>
   <vehicle id="human_70" type="default" depart="0.0" departPos="base" departSpeed="0.0" arrivalPos="max" arrivalSpeed="current">
      <route edges="A1A AC CF FI IL LL1"/>
   </vehicle>
   <vehicle id="human_71" type="default" depart="0.0" departPos="base" departSpeed="0.0" arrivalPos="max" arrivalSpeed="current">
      <route edges="A1A AC CF FI IL LL1"/>
   </vehicle>
   <vehicle id="human_72" type="default" depart="0.0" departPos="base" departSpeed="0.0" arrivalPos="max" arrivalSpeed="current">
      <route edges="A1A AC CF FI IL LL1"/>
   </vehicle>
   <vehicle id="human_73" type="default" depart="0.0" departPos="base" departSpeed="0.0" arrivalPos="max" arrivalSpeed="current">
      <route edges="A1A AC CF FI IL LL1"/>
   </vehicle>
   <vehicle id="human_74" type="default" depart="0.0" departPos="base" departSpeed="0.0" arrivalPos="max" arrivalSpeed="current">
      <route edges="A1A AC CF FI IL LL1"/>
   </vehicle>
   <vehicle id="human_75" type="default" depart="0.0" departPos="base" departSpeed="0.0" arrivalPos="max" arrivalSpeed="current">
      <route edges="A1A AC CF FI IL LL1"/>
   </vehicle>
   <vehicle id="human_76" type="default" depart="0.0" departPos="base" departSpeed="0.0" arrivalPos="max" arrivalSpeed="current">
      <route edges="A1A AC CF FI IL LL1"/>
   </vehicle>
   <vehicle id="human_77" type="default" depart="0.0" departPos="base" departSpeed="0.0" arrivalPos="max" arrivalSpeed="current">
      <route edges="A1A AC CF FI IL LL1"/>
   </vehicle>
   <vehicle id="human_78" type="default" depart="0.0" departPos="base" departSpeed="0.0" arrivalPos="max" arrivalSpeed="current">
      <route edges="A1A AC CF FI IL LL1"/>
   </vehicle>
   <vehicle id="human_79" type="default" depart="0.0" departPos="base" departSpeed="0.0" arrivalPos="max" arrivalSpeed="current">
      <route edges="A1A AC CF FI IL LL1"/>
   </vehicle>
   <vehicle id="human_80" type="default" depart="0.0" departPos="base" departSpeed="0.0" arrivalPos="max" arrivalSpeed="current">
      <route edges="A1A AC CF FI IL LL1"/>
   </vehicle>
   <vehicle id="human_81" type="default" depart="0.0" departPos="base" departSpeed="0.0" arrivalPos="max" arrivalSpeed="current">
      <route edges="A1A AC CF FI IL LL1"/>
   </vehicle>
   <vehicle id="human_82" type="default" depart="0.0" departPos="base" departSpeed="0.0" arrivalPos="max" arrivalSpeed="current">
      <route edges="A1A AC CF FI IL LL1"/>
   </vehicle>
   <vehicle id="human_83" type="default" depart="0.0" departPos="base" departSpeed="0.0" arrivalPos="max" arrivalSpeed="current">
      <route edges="A1A AC CF FI IL LL1"/>
   </vehicle>
   <vehicle id="human_84" type="default" depart="0.0" departPos="base" departSpeed="0.0" arrivalPos="max" arrivalSpeed="current">
      <route edges="A1A AC CF FI IL LL1"/>
   </vehicle>
   <vehicle id="human_85" type="default" depart="0.0" departPos="base" departSpeed="0.0" arrivalPos="max" arrivalSpeed="current">
      <route edges="A1A AC CF FI IL LL1"/>
   </vehicle>
   <vehicle id="human_86" type="default" depart="0.0" departPos="base" departSpeed="0.0" arrivalPos="max" arrivalSpeed="current">
      <route edges="A1A AC CF FI IL LL1"/>
   </vehicle>
   <vehicle id="human_87" type="default" depart="0.0" departPos="base" departSpeed="0.0" arrivalPos="max" arrivalSpeed="current">
      <route edges="A1A AC CF FI IL LL1"/>
   </vehicle>
   <vehicle id="human_88" type="default" depart="0.0" departPos="base" departSpeed="0.0" arrivalPos="max" arrivalSpeed="current">
      <route edges="A1A AC CF FI IL LL1"/>
   </vehicle>
   <vehicle id="human_89" type="default" depart="0.0" departPos="base" departSpeed="0.0" arrivalPos="max" arrivalSpeed="current">
      <route edges="A1A AC CF FI IL LL1"/>
   </vehicle>
   <vehicle id="human_90" type="default" depart="0.0" departPos="base" departSpeed="0.0" arrivalPos="max" arrivalSpeed="current">
      <route edges="A1A AC CF FI IL LL1"/>
   </vehicle>
   <vehicle id="human_91" type="default" depart="0.0" departPos="base" departSpeed="0.0" arrivalPos="max" arrivalSpeed="current">
      <route edges="A1A AC CF FI IL LL1"/>
   </vehicle>
   <vehicle id="human_92" type="default" depart="0.0" departPos="base" departSpeed="0.0" arrivalPos="max" arrivalSpeed="current">
      <route edges="A1A AC CF FI IL LL1"/>
   </vehicle>
   <vehicle id="human_93" type="default" depart="0.0" departPos="base" departSpeed="0.0" arrivalPos="max" arrivalSpeed="current">
      <route edges="A1A AC CF FI IL LL1"/>
   </vehicle>
   <vehicle id="human_94" type="default" depart="0.0" departPos="base" departSpeed="0.0" arrivalPos="max" arrivalSpeed="current">
      <route edges="A1A AC CF FI IL LL1"/>
   </vehicle>
   <vehicle id="human_95" type="default" depart="0.0" departPos="base" departSpeed="0.0" arrivalPos="max" arrivalSpeed="current">
      <route edges="A1A AC CF FI IL LL1"/>
   </vehicle>
   <vehicle id="human_96" type="default" depart="0.0" departPos="base" departSpeed="0.0" arrivalPos="max" arrivalSpeed="current">
      <route edges="A1A AC CF FI IL LL1"/>
   </vehicle>
   <vehicle id="human_97" type="default" depart="0.0" departPos="base" departSpeed="0.0" arrivalPos="max" arrivalSpeed="current">
      <route edges="A1A AC CF FI IL LL1"/>
   </vehicle>
   <vehicle id="human_98" type="default" depart="0.0" departPos="base" departSpeed="0.0" arrivalPos="max" arrivalSpeed="current">
      <route edges="A1A AC CF FI IL LL1"/>
   </vehicle>
   <vehicle id="human_99" type="default" depart="0.0" departPos="base" departSpeed="0.0" arrivalPos="max" arrivalSpeed="current">
      <route edges="A1A AC CF FI IL LL1"/>
   </vehicle>
   <vehicle id="human_100" type="default" depart="0.0" departPos="base" departSpeed="0.0" arrivalPos="max" arrivalSpeed="current">
      <route edges="A1A AC CF FI IL LL1"/>
   </vehicle>
   <vehicle id="human_101" type="default" depart="0.0" departPos="base" departSpeed="0.0" arrivalPos="max" arrivalSpeed="current">
      <route edges="A1A AC CF FI IL LL1"/>
   </vehicle>
   <vehicle id="human_102" type="default" depart="0.0" departPos="base" departSpeed="0.0" arrivalPos="max" arrivalSpeed="current">
      <route edges="A1A AC CF FI IL LL1"/>
   </vehicle>
   <vehicle id="human_103" type="default" depart="0.0" departPos="base" departSpeed="0.0" arrivalPos="max" arrivalSpeed="current">
      <route edges="A1A AC CF FI IL LL1"/>
   </vehicle>
   <vehicle id="human_104" type="default" depart="0.0" departPos="base" departSpeed="0.0" arrivalPos="max" arrivalSpeed="current">
      <route edges="A1A AC CF FI IL LL1"/>
   </vehicle>
   <vehicle id="human_105" type="default" depart="0.0" departPos="base" departSpeed="0.0" arrivalPos="max" arrivalSpeed="current">
      <route edges="A1A AC CF FI IL LL1"/>
   </vehicle>
   <vehicle id="human_106" type="default" depart="0.0" departPos="base" departSpeed="0.0" arrivalPos="max" arrivalSpeed="current">
      <route edges="A1A AC CF FI IL LL1"/>
   </vehicle>
   <vehicle id="human_107" type="default" depart="0.0" departPos="base" departSpeed="0.0" arrivalPos="max" arrivalSpeed="current">
      <route edges="A1A AC CF FI IL LL1"/>
   </vehicle>
   <vehicle id="human_108" type="default" depart="0.0" departPos="base" departSpeed="0.0" arrivalPos="max" arrivalSpeed="current">
      <route edges="A1A AC CF FI IL LL1"/>
   </vehicle>
   <vehicle id="human_109" type="default" depart="0.0" departPos="base" departSpeed="0.0" arrivalPos="max" arrivalSpeed="current">
      <route edges="A1A AC CF FI IL LL1"/>
   </vehicle>
   <vehicle id="human_110" type="default" depart="0.0" departPos="base" departSpeed="0.0" arrivalPos="max" arrivalSpeed="current">
      <route edges="A1A AC CF FI IL LL1"/>
   </vehicle>
   <vehicle id="human_111" type="default" depart="0.0" departPos="base" departSpeed="0.0" arrivalPos="max" arrivalSpeed="current">
      <route edges="A1A AC CF FI IL LL1"/>
   </vehicle>
   <vehicle id="human_112" type="default" depart="0.0" departPos="base" departSpeed="0.0" arrivalPos="max" arrivalSpeed="current">
      <route edges="A1A AC CF FI IL LL1"/>
   </vehicle>
   <vehicle id="human_113" type="default" depart="0.0" departPos="base" departSpeed="0.0" arrivalPos="max" arrivalSpeed="current">
      <route edges="A1A AC CF FI IL LL1"/>
   </vehicle>
   <vehicle id="human_114" type="default" depart="0.0" departPos="base" departSpeed="0.0" arrivalPos="max" arrivalSpeed="current">
      <route edges="A1A AC CF FI IL LL1"/>
   </vehicle>
   <vehicle id="human_115" type="default" depart="0.0" departPos="base" departSpeed="0.0" arrivalPos="max" arrivalSpeed="current">
      <route edges="A1A AC CF FI IL LL1"/>
   </vehicle>
   <vehicle id="human_116" type="default" depart="0.0" departPos="base" departSpeed="0.0" arrivalPos="max" arrivalSpeed="current">
      <route edges="A1A AC CF FI IL LL1"/>
   </vehicle>
   <vehicle id="human_117" type="default" depart="0.0" departPos="base" departSpeed="0.0" arrivalPos="max" arrivalSpeed="current">
      <route edges="A1A AC CF FI IL LL1"/>
   </vehicle>
   <vehicle id="human_118" type="default" depart="0.0" departPos="base" departSpeed="0.0" arrivalPos="max" arrivalSpeed="current">
      <route edges="A1A AC CF FI IL LL1"/>
   </vehicle>
   <vehicle id="human_119" type="default" depart="0.0" departPos="base" departSpeed="0.0" arrivalPos="max" arrivalSpeed="current">
      <route edges="A1A AC CF FI IL LL1"/>
   </vehicle>
   <vehicle id="human_120" type="default" depart="0.0" departPos="base" departSpeed="0.0" arrivalPos="max" arrivalSpeed="current">
      <route edges="A1A AC CF FI IL LL1"/>
   </vehicle>
   <vehicle id="human_121" type="default" depart="0.0" departPos="base" departSpeed="0.0" arrivalPos="max" arrivalSpeed="current">
      <route edges="A1A AC CF FI IL LL1"/>
   </vehicle>
   <vehicle id="human_122" type="default" depart="0.0" departPos="base" departSpeed="0.0" arrivalPos="max" arrivalSpeed="current">
      <route edges="A1A AC CF FI IL LL1"/>
   </vehicle>
   <vehicle id="human_123" type="default" depart="0.0" departPos="base" departSpeed="0.0" arrivalPos="max" arrivalSpeed="current">
      <route edges="A1A AC CF FI IL LL1"/>
   </vehicle>
   <vehicle id="human_124" type="default" depart="0.0" departPos="base" departSpeed="0.0" arrivalPos="max" arrivalSpeed="current">
      <route edges="A1A AC CF FI IL LL1"/>
   </vehicle>
   <vehicle id="human_125" type="default" depart="0.0" departPos="base" departSpeed="0.0" arrivalPos="max" arrivalSpeed="current">
      <route edges="A1A AC CF FI IL LL1"/>
   </vehicle>
   <vehicle id="human_126" type="default" depart="0.0" departPos="base" departSpeed="0.0" arrivalPos="max" arrivalSpeed="current">
      <route edges="A1A AC CF FI IL LL1"/>
   </vehicle>
   <vehicle id="human_127" type="default" depart="0.0" departPos="base" departSpeed="0.0" arrivalPos="max" arrivalSpeed="current">
      <route edges="A1A AC CF FI IL LL1"/>
   </vehicle>
   <vehicle id="human_128" type="default" depart="0.0" departPos="base" departSpeed="0.0" arrivalPos="max" arrivalSpeed="current">
      <route edges="A1A AC CF FI IL LL1"/>
   </vehicle>
   <vehicle id="human_129" type="default" depart="0.0" departPos="base" departSpeed="0.0" arrivalPos="max" arrivalSpeed="current">
      <route edges="A1A AC CF FI IL LL1"/>
   </vehicle>
   <vehicle id="human_130" type="default" depart="0.0" departPos="base" departSpeed="0.0" arrivalPos="max" arrivalSpeed="current">
      <route edges="A1A AC CF FI IL LL1"/>
   </vehicle>
   <vehicle id="human_131" type="default" depart="0.0" departPos="base" departSpeed="0.0" arrivalPos="max" arrivalSpeed="current">
      <route edges="A1A AC CF FI IL LL1"/>
   </vehicle>
   <vehicle id="human_132" type="default" depart="0.0" departPos="base" departSpeed="0.0" arrivalPos="max" arrivalSpeed="current">
      <route edges="A1A AC CF FI IL LL1"/>
   </vehicle>
   <vehicle id="human_133" type="default" depart="0.0" departPos="base" departSpeed="0.0" arrivalPos="max" arrivalSpeed="current">
      <route edges="A1A AC CF FI IL LL1"/>
   </vehicle>
   <vehicle id="human_134" type="default" depart="0.0" departPos="base" departSpeed="0.0" arrivalPos="max" arrivalSpeed="current">
      <route edges="A1A AC CF FI IL LL1"/>
   </vehicle>
   <vehicle id="human_135" type="default" depart="0.0" departPos="base" departSpeed="0.0" arrivalPos="max" arrivalSpeed="current">
      <route edges="A1A AC CF FI IL LL1"/>
   </vehicle>
   <vehicle id="human_136" type="default" depart="0.0" departPos="base" departSpeed="0.0" arrivalPos="max" arrivalSpeed="current">
      <route edges="A1A AC CF FI IL LL1"/>
   </vehicle>
   <vehicle id="human_137" type="default" depart="0.0" departPos="base" departSpeed="0.0" arrivalPos="max" arrivalSpeed="current">
      <route edges="A1A AC CF FI IL LL1"/>
   </vehicle>
   <vehicle id="human_138" type="default" depart="0.0" departPos="base" departSpeed="0.0" arrivalPos="max" arrivalSpeed="current">
      <route edges="A1A AC CF FI IL LL1"/>
   </vehicle>
   <vehicle id="human_139" type="default" depart="0.0" departPos="base" departSpeed="0.0" arrivalPos="max" arrivalSpeed="current">
      <route edges="A1A AC CF FI IL LL1"/>
   </vehicle>
   <vehicle id="human_140" type="default" depart="0.0" departPos="base" departSpeed="0.0" arrivalPos="max" arrivalSpeed="current">
      <route edges="A1A AC CF FI IL LL1"/>
   </vehicle>
   <vehicle id="human_141" type="default" depart="0.0" departPos="base" departSpeed="0.0" arrivalPos="max" arrivalSpeed="current">
      <route edges="A1A AC CF FI IL LL1"/>
   </vehicle>
   <vehicle id="human_142" type="default" depart="0.0" departPos="base" departSpeed="0.0" arrivalPos="max" arrivalSpeed="current">
      <route edges="A1A AC CF FI IL LL1"/>
   </vehicle>
   <vehicle id="human_143" type="default" depart="0.0" departPos="base" departSpeed="0.0" arrivalPos="max" arrivalSpeed="current">
      <route edges="A1A AC CF FI IL LL1"/>
   </vehicle>
   <vehicle id="human_144" type="default" depart="0.0" departPos="base" departSpeed="0.0" arrivalPos="max" arrivalSpeed="current">
      <route edges="A1A AC CF FI IL LL1"/>
   </vehicle>
   <vehicle id="human_145" type="default" depart="0.0" departPos="base" departSpeed="0.0" arrivalPos="max" arrivalSpeed="current">
      <route edges="A1A AC CF FI IL LL1"/>
   </vehicle>
   <vehicle id="human_146" type="default" depart="0.0" departPos="base" departSpeed="0.0" arrivalPos="max" arrivalSpeed="current">
      <route edges="A1A AC CF FI IL LL1"/>
   </vehicle>
   <vehicle id="human_147" type="default" depart="0.0" departPos="base" departSpeed="0.0" arrivalPos="max" arrivalSpeed="current">
      <route edges="A1A AC CF FI IL LL1"/>
   </vehicle>
   <vehicle id="human_148" type="default" depart="0.0" departPos="base" departSpeed="0.0" arrivalPos="max" arrivalSpeed="current">
      <route edges="A1A AC CF FI IL LL1"/>
   </vehicle>
   <vehicle id="human_149" type="default" depart="0.0" departPos="base" departSpeed="0.0" arrivalPos="max" arrivalSpeed="current">
      <route edges="A1A AC CF FI IL LL1"/>
   </vehicle>
   <vehicle id="human_150" type="default" depart="0.0" departPos="base" departSpeed="0.0" arrivalPos="max" arrivalSpeed="current">
      <route edges="A1A AC CF FI IL LL1"/>
   </vehicle>
   <vehicle id="human_151" type="default" depart="0.0" departPos="base" departSpeed="0.0" arrivalPos="max" arrivalSpeed="current">
      <route edges="A1A AC CF FI IL LL1"/>
   </vehicle>
   <vehicle id="human_152" type="default" depart="0.0" departPos="base" departSpeed="0.0" arrivalPos="max" arrivalSpeed="current">
      <route edges="A1A AC CF FI IL LL1"/>
   </vehicle>
   <vehicle id="human_153" type="default" depart="0.0" departPos="base" departSpeed="0.0" arrivalPos="max" arrivalSpeed="current">
      <route edges="A1A AC CF FI IL LL1"/>
   </vehicle>
   <vehicle id="human_154" type="default" depart="0.0" departPos="base" departSpeed="0.0" arrivalPos="max" arrivalSpeed="current">
      <route edges="A1A AC CF FI IL LL1"/>
   </vehicle>
   <vehicle id="human_155" type="default" depart="0.0" departPos="base" departSpeed="0.0" arrivalPos="max" arrivalSpeed="current">
      <route edges="A1A AC CF FI IL LL1"/>
   </vehicle>
   <vehicle id="human_156" type="default" depart="0.0" departPos="base" departSpeed="0.0" arrivalPos="max" arrivalSpeed="current">
      <route edges="A1A AC CF FI IL LL1"/>
   </vehicle>
   <vehicle id="human_157" type="default" depart="0.0" departPos="base" departSpeed="0.0" arrivalPos="max" arrivalSpeed="current">
      <route edges="A1A AC CF FI IL LL1"/>
   </vehicle>
   <vehicle id="human_158" type="default" depart="0.0" departPos="base" departSpeed="0.0" arrivalPos="max" arrivalSpeed="current">
      <route edges="A1A AC CF FI IL LL1"/>
   </vehicle>